  
       XFOIL         Version 6.99
  
 Calculated polar for: A18 (smoothed)                                  
  
 1 1 Reynolds number fixed          Mach number fixed         
  
 xtrf =   1.000 (top)        1.000 (bottom)  
 Mach =   0.000     Re =     0.140 e 6     Ncrit =   9.000
  
   alpha    CL        CD       CDp       CM     Top_Xtr  Bot_Xtr
  ------ -------- --------- --------- -------- -------- --------
  -2.000   0.0765   0.01719   0.00896  -0.0869   0.9997   0.1771
  -1.500   0.1633   0.01659   0.00866  -0.0941   0.9900   0.2531
  -1.000   0.2488   0.01600   0.00851  -0.1008   0.9788   0.3684
  -0.500   0.3247   0.01417   0.00836  -0.1045   0.9686   0.9021
   0.000   0.4045   0.01413   0.00797  -0.1096   0.9497   1.0000
   0.500   0.4865   0.01397   0.00763  -0.1148   0.9335   1.0000
   1.000   0.5682   0.01363   0.00723  -0.1197   0.9179   1.0000
   1.500   0.6416   0.01325   0.00685  -0.1224   0.8993   1.0000
   2.000   0.7071   0.01295   0.00659  -0.1234   0.8761   1.0000
   2.500   0.7676   0.01270   0.00640  -0.1230   0.8484   1.0000
   3.000   0.8222   0.01231   0.00597  -0.1206   0.8057   1.0000
   3.500   0.8752   0.01240   0.00608  -0.1187   0.7647   1.0000
   4.000   0.9272   0.01266   0.00634  -0.1168   0.7211   1.0000
   4.500   0.9767   0.01300   0.00668  -0.1144   0.6658   1.0000
   5.000   1.0225   0.01350   0.00702  -0.1112   0.5869   1.0000
   5.500   1.0626   0.01448   0.00761  -0.1073   0.4606   1.0000
   6.000   1.0840   0.01782   0.00936  -0.1016   0.1906   1.0000
   6.500   1.1084   0.02173   0.01240  -0.0965   0.0804   1.0000
   7.000   1.1402   0.02507   0.01558  -0.0925   0.0580   1.0000
   7.500   1.1823   0.02818   0.01891  -0.0896   0.0491   1.0000
   8.000   1.2285   0.03250   0.02351  -0.0877   0.0425   1.0000
   8.500   1.2740   0.03766   0.02923  -0.0853   0.0398   1.0000
   9.000   1.3077   0.04410   0.03649  -0.0815   0.0387   1.0000
   9.500   1.3282   0.05157   0.04445  -0.0777   0.0361   1.0000
  10.000   1.3072   0.06211   0.05656  -0.0676   0.0408   1.0000
  10.500   1.2902   0.07631   0.07114  -0.0630   0.0460   1.0000
  11.000   1.1293   0.07058   0.06616  -0.0402   0.0426   1.0000
  11.500   1.0701   0.08126   0.07719  -0.0385   0.0433   1.0000
  12.000   1.0069   0.09409   0.09027  -0.0416   0.0440   1.0000
  12.500   0.9586   0.10724   0.10352  -0.0455   0.0458   1.0000
