  
       XFOIL         Version 6.99
  
 Calculated polar for: A18 (smoothed)                                  
  
 1 1 Reynolds number fixed          Mach number fixed         
  
 xtrf =   1.000 (top)        1.000 (bottom)  
 Mach =   0.000     Re =     0.129 e 6     Ncrit =   9.000
  
   alpha    CL        CD       CDp       CM     Top_Xtr  Bot_Xtr
  ------ -------- --------- --------- -------- -------- --------
  -2.000   0.0740   0.01763   0.00927  -0.0866   1.0000   0.1824
  -1.500   0.1395   0.01737   0.00916  -0.0898   0.9963   0.2492
  -1.000   0.2277   0.01680   0.00906  -0.0972   0.9855   0.3615
  -0.500   0.3071   0.01526   0.00902  -0.1020   0.9750   0.7561
   0.000   0.3906   0.01502   0.00862  -0.1076   0.9577   1.0000
   0.500   0.4689   0.01501   0.00842  -0.1123   0.9383   1.0000
   1.000   0.5505   0.01479   0.00813  -0.1173   0.9207   1.0000
   1.500   0.6299   0.01440   0.00773  -0.1214   0.9035   1.0000
   2.000   0.6981   0.01410   0.00749  -0.1230   0.8811   1.0000
   2.500   0.7646   0.01372   0.00720  -0.1238   0.8578   1.0000
   3.000   0.8213   0.01317   0.00665  -0.1216   0.8182   1.0000
   3.500   0.8746   0.01312   0.00664  -0.1194   0.7769   1.0000
   4.000   0.9269   0.01330   0.00685  -0.1174   0.7342   1.0000
   4.500   0.9766   0.01358   0.00717  -0.1148   0.6810   1.0000
   5.000   1.0226   0.01399   0.00744  -0.1114   0.6045   1.0000
   5.500   1.0630   0.01483   0.00798  -0.1074   0.4860   1.0000
   6.000   1.0839   0.01803   0.00958  -0.1013   0.2104   1.0000
   6.500   1.1064   0.02213   0.01271  -0.0960   0.0872   1.0000
   7.000   1.1395   0.02527   0.01576  -0.0919   0.0627   1.0000
   7.500   1.1810   0.02912   0.01972  -0.0890   0.0528   1.0000
   8.000   1.2283   0.03398   0.02470  -0.0876   0.0454   1.0000
   8.500   1.2720   0.03922   0.03071  -0.0847   0.0429   1.0000
   9.000   1.3017   0.04659   0.03904  -0.0802   0.0427   1.0000
   9.500   1.3130   0.05408   0.04751  -0.0743   0.0416   1.0000
  10.000   1.3041   0.06335   0.05761  -0.0674   0.0430   1.0000
  10.500   1.2579   0.07501   0.07025  -0.0581   0.0513   1.0000
