  
       XFOIL         Version 6.99
  
 Calculated polar for: A18 (smoothed)                                  
  
 1 1 Reynolds number fixed          Mach number fixed         
  
 xtrf =   1.000 (top)        1.000 (bottom)  
 Mach =   0.000     Re =     0.191 e 6     Ncrit =   9.000
  
   alpha    CL        CD       CDp       CM     Top_Xtr  Bot_Xtr
  ------ -------- --------- --------- -------- -------- --------
  -2.000   0.1542   0.01449   0.00706  -0.1011   0.9818   0.1891
  -1.500   0.2350   0.01385   0.00666  -0.1067   0.9719   0.2644
  -1.000   0.3127   0.01311   0.00640  -0.1116   0.9603   0.3834
  -0.500   0.3849   0.01157   0.00619  -0.1148   0.9497   0.7614
   0.000   0.4606   0.01093   0.00559  -0.1182   0.9359   1.0000
   0.500   0.5335   0.01059   0.00513  -0.1212   0.9203   1.0000
   1.000   0.6016   0.01026   0.00472  -0.1229   0.9024   1.0000
   1.500   0.6607   0.01009   0.00453  -0.1227   0.8773   1.0000
   2.000   0.7179   0.01003   0.00442  -0.1220   0.8492   1.0000
   2.500   0.7711   0.00998   0.00429  -0.1201   0.8079   1.0000
   3.000   0.8235   0.01014   0.00432  -0.1183   0.7625   1.0000
   3.500   0.8760   0.01047   0.00461  -0.1170   0.7203   1.0000
   4.000   0.9274   0.01089   0.00494  -0.1154   0.6732   1.0000
   4.500   0.9760   0.01140   0.00534  -0.1132   0.6079   1.0000
   5.000   1.0220   0.01213   0.00585  -0.1108   0.5217   1.0000
   5.500   1.0591   0.01370   0.00665  -0.1071   0.3447   1.0000
   6.000   1.0870   0.01694   0.00859  -0.1031   0.1297   1.0000
   6.500   1.1180   0.02010   0.01121  -0.0990   0.0583   1.0000
   7.000   1.1525   0.02290   0.01408  -0.0951   0.0450   1.0000
   7.500   1.1909   0.02546   0.01677  -0.0920   0.0374   1.0000
   8.000   1.2332   0.02960   0.02116  -0.0894   0.0336   1.0000
   8.500   1.2779   0.03406   0.02611  -0.0871   0.0314   1.0000
   9.000   1.3141   0.03790   0.03032  -0.0843   0.0280   1.0000
   9.500   1.3412   0.04456   0.03767  -0.0802   0.0273   1.0000
  10.000   1.3285   0.05623   0.05086  -0.0706   0.0308   1.0000
