  
       XFOIL         Version 6.99
  
 Calculated polar for: AG03 (flat aft bottom)                          
  
 1 1 Reynolds number fixed          Mach number fixed         
  
 xtrf =   1.000 (top)        1.000 (bottom)  
 Mach =   0.000     Re =     0.050 e 6     Ncrit =   9.000
  
   alpha    CL        CD       CDp       CM     Top_Xtr  Bot_Xtr
  ------ -------- --------- --------- -------- -------- --------
 -10.000  -0.4435   0.12464   0.11813   0.0078   1.0000   0.1450
  -9.500  -0.4323   0.11673   0.11028   0.0074   1.0000   0.1540
  -9.000  -0.4547   0.11330   0.10701   0.0029   1.0000   0.1606
  -8.500  -0.5461   0.11441   0.10776   0.0148   1.0000   0.1587
  -8.000  -0.5348   0.10692   0.10038   0.0133   1.0000   0.1710
  -7.500  -0.5298   0.10037   0.09397   0.0104   1.0000   0.1859
  -7.000  -0.5269   0.09392   0.08769   0.0036   1.0000   0.2029
  -6.500  -0.5106   0.08639   0.08025   0.0018   1.0000   0.2310
  -6.000  -0.4888   0.07884   0.07280   0.0044   1.0000   0.2680
  -5.500  -0.4723   0.07195   0.06598   0.0039   1.0000   0.3160
  -4.000  -0.4057   0.05375   0.04823   0.0407   1.0000   0.6469
  -3.500  -0.2379   0.03200   0.02264  -0.0355   1.0000   0.1087
  -3.000  -0.1822   0.02667   0.01641  -0.0343   1.0000   0.1145
  -2.500  -0.1273   0.02236   0.01158  -0.0326   1.0000   0.1502
  -2.000  -0.0735   0.01788   0.00784  -0.0306   1.0000   0.3203
  -1.500  -0.0136   0.01438   0.00570  -0.0282   1.0000   1.0000
  -1.000   0.0324   0.01445   0.00504  -0.0267   1.0000   1.0000
  -0.500   0.0778   0.01463   0.00477  -0.0253   1.0000   1.0000
   0.000   0.1223   0.01496   0.00477  -0.0241   1.0000   1.0000
   0.500   0.1661   0.01547   0.00505  -0.0233   1.0000   1.0000
   1.000   0.2084   0.01623   0.00571  -0.0230   1.0000   1.0000
   1.500   0.2483   0.01737   0.00680  -0.0233   1.0000   1.0000
   2.000   0.3036   0.01906   0.00857  -0.0280   0.9903   1.0000
   2.500   0.4700   0.02002   0.01001  -0.0498   0.9112   1.0000
   3.000   0.5645   0.01982   0.01022  -0.0529   0.8262   1.0000
   3.500   0.6155   0.01992   0.01035  -0.0471   0.7393   1.0000
   4.000   0.6590   0.02046   0.01080  -0.0406   0.6501   1.0000
   4.500   0.7024   0.02151   0.01166  -0.0354   0.5570   1.0000
   5.000   0.7468   0.02299   0.01289  -0.0313   0.4668   1.0000
   5.500   0.7914   0.02494   0.01468  -0.0279   0.3806   1.0000
   6.000   0.8365   0.02745   0.01694  -0.0251   0.3045   1.0000
   6.500   0.8814   0.03080   0.02051  -0.0228   0.2416   1.0000
   7.000   0.9263   0.03506   0.02501  -0.0208   0.1977   1.0000
   7.500   0.9664   0.04063   0.03122  -0.0189   0.1664   1.0000
   8.000   1.0025   0.04673   0.03779  -0.0170   0.1417   1.0000
   8.500   1.0089   0.05843   0.05105  -0.0163   0.1373   1.0000
   9.000   0.9935   0.07173   0.06515  -0.0184   0.1382   1.0000
   9.500   0.9708   0.08511   0.07878  -0.0225   0.1410   1.0000
  10.000   0.8457   0.12726   0.12033  -0.0675   0.3188   1.0000
  10.500   0.8502   0.13522   0.12838  -0.0672   0.2912   1.0000
  11.000   0.8435   0.14309   0.13621  -0.0694   0.2766   1.0000
  11.500   0.8407   0.15084   0.14395  -0.0714   0.2613   1.0000
  12.000   0.8423   0.15851   0.15162  -0.0733   0.2442   1.0000
  12.500   0.8667   0.16891   0.16212  -0.0727   0.2226   1.0000
  13.000   0.8750   0.17759   0.17082  -0.0746   0.2091   1.0000
  13.500   0.8812   0.18552   0.17874  -0.0770   0.1954   1.0000
  14.000   0.8840   0.19205   0.18523  -0.0801   0.1812   1.0000
  14.500   0.9009   0.20175   0.19497  -0.0819   0.1684   1.0000
  15.000   0.9014   0.20618   0.19936  -0.0866   0.1579   1.0000
  15.500   0.9098   0.21302   0.20622  -0.0907   0.1477   1.0000
  16.000   0.9228   0.22056   0.21375  -0.0941   0.1369   1.0000
  16.500   0.9464   0.23216   0.22539  -0.0951   0.1282   1.0000
  17.000   0.9513   0.23545   0.22863  -0.1013   0.1202   1.0000
  17.500   0.9677   0.24387   0.23703  -0.1046   0.1135   1.0000
  18.000   0.9970   0.25931   0.25254  -0.1044   0.1025   1.0000
  18.500   0.9968   0.25752   0.25065  -0.1133   0.0993   1.0000
  19.000   1.0140   0.26491   0.25807  -0.1169   0.0920   1.0000
  19.500   1.0322   0.27474   0.26790  -0.1201   0.0888   1.0000
  20.000   1.0440   0.27809   0.27128  -0.1266   0.0834   1.0000
  -2.000  -0.0735   0.01788   0.00784  -0.0306   1.0000   0.3203
  -1.500  -0.0136   0.01438   0.00570  -0.0282   1.0000   1.0000
  -1.000   0.0324   0.01445   0.00504  -0.0267   1.0000   1.0000
  -0.500   0.0778   0.01463   0.00476  -0.0253   1.0000   1.0000
   0.000   0.1223   0.01496   0.00477  -0.0241   1.0000   1.0000
   0.500   0.1661   0.01547   0.00505  -0.0233   1.0000   1.0000
   1.000   0.2084   0.01623   0.00571  -0.0230   1.0000   1.0000
   1.500   0.2483   0.01737   0.00680  -0.0233   1.0000   1.0000
   2.000   0.3036   0.01906   0.00857  -0.0280   0.9903   1.0000
   2.500   0.4700   0.02002   0.01001  -0.0498   0.9112   1.0000
   3.000   0.5645   0.01982   0.01022  -0.0529   0.8262   1.0000
   3.500   0.6155   0.01992   0.01035  -0.0471   0.7393   1.0000
   4.000   0.6590   0.02046   0.01080  -0.0406   0.6501   1.0000
   4.500   0.7024   0.02151   0.01166  -0.0354   0.5570   1.0000
   5.000   0.7468   0.02299   0.01289  -0.0313   0.4668   1.0000
   5.500   0.7914   0.02494   0.01468  -0.0279   0.3806   1.0000
   6.000   0.8365   0.02745   0.01694  -0.0251   0.3045   1.0000
   6.500   0.8814   0.03080   0.02051  -0.0228   0.2416   1.0000
   7.000   0.9263   0.03506   0.02501  -0.0208   0.1977   1.0000
   7.500   0.9664   0.04063   0.03122  -0.0189   0.1664   1.0000
   8.000   1.0025   0.04673   0.03779  -0.0170   0.1417   1.0000
   8.500   1.0089   0.05843   0.05105  -0.0163   0.1373   1.0000
   9.000   0.9935   0.07173   0.06515  -0.0184   0.1382   1.0000
   9.500   0.9708   0.08511   0.07878  -0.0225   0.1410   1.0000
  10.500   0.6730   0.12621   0.11942  -0.0497   0.3181   1.0000
  11.000   0.6643   0.13307   0.12629  -0.0502   0.3029   1.0000
  11.500   0.6764   0.14075   0.13406  -0.0497   0.2787   1.0000
  12.000   0.6690   0.14665   0.13997  -0.0503   0.2625   1.0000
  12.500   0.6662   0.15246   0.14588  -0.0508   0.2486   1.0000
  13.000   0.6651   0.15803   0.15150  -0.0511   0.2353   1.0000
  13.500   0.6585   0.16203   0.15552  -0.0518   0.2202   1.0000
  14.000   0.6572   0.16669   0.16023  -0.0527   0.2042   1.0000
  14.500   0.6627   0.17299   0.16657  -0.0538   0.1934   1.0000
  15.000   0.6717   0.18004   0.17367  -0.0547   0.1813   1.0000
