  
       XFOIL         Version 6.99
  
 Calculated polar for: AG11                                            
  
 1 1 Reynolds number fixed          Mach number fixed         
  
 xtrf =   1.000 (top)        1.000 (bottom)  
 Mach =   0.000     Re =     0.050 e 6     Ncrit =   9.000
  
   alpha    CL        CD       CDp       CM     Top_Xtr  Bot_Xtr
  ------ -------- --------- --------- -------- -------- --------
 -10.000  -0.4490   0.12722   0.12069   0.0071   1.0000   0.1246
  -9.500  -0.4259   0.11745   0.11096   0.0079   1.0000   0.1352
  -9.000  -0.4467   0.11443   0.10809   0.0032   1.0000   0.1393
  -8.500  -0.5359   0.11543   0.10870   0.0164   1.0000   0.1362
  -8.000  -0.5253   0.10821   0.10160   0.0143   1.0000   0.1454
  -7.500  -0.5202   0.10184   0.09535   0.0109   1.0000   0.1571
