  
       XFOIL         Version 6.99
  
 Calculated polar for: A18 (smoothed)                                  
  
 1 1 Reynolds number fixed          Mach number fixed         
  
 xtrf =   1.000 (top)        1.000 (bottom)  
 Mach =   0.000     Re =     0.858 e 6     Ncrit =   9.000
  
   alpha    CL        CD       CDp       CM     Top_Xtr  Bot_Xtr
  ------ -------- --------- --------- -------- -------- --------
   0.000   0.5027   0.00595   0.00133  -0.1206   0.8223   0.4168
   0.500   0.5581   0.00569   0.00142  -0.1205   0.7898   0.5888
   1.500   0.6602   0.00535   0.00151  -0.1179   0.6877   1.0000
   2.000   0.7150   0.00567   0.00165  -0.1175   0.6453   1.0000
   2.500   0.7699   0.00600   0.00183  -0.1173   0.6046   1.0000
   3.000   0.8242   0.00639   0.00204  -0.1169   0.5596   1.0000
   3.500   0.8772   0.00691   0.00233  -0.1164   0.4933   1.0000
   4.000   0.9287   0.00764   0.00270  -0.1157   0.4048   1.0000
   4.500   0.9738   0.00931   0.00349  -0.1142   0.2213   1.0000
   5.000   1.0223   0.01045   0.00419  -0.1131   0.1313   1.0000
   5.500   1.0707   0.01154   0.00494  -0.1120   0.0649   1.0000
   6.000   1.1186   0.01264   0.00583  -0.1107   0.0297   1.0000
   6.500   1.1659   0.01381   0.00703  -0.1091   0.0186   1.0000
   7.000   1.2144   0.01469   0.00800  -0.1078   0.0161   1.0000
   7.500   1.2577   0.01615   0.00957  -0.1056   0.0132   1.0000
   8.000   1.3008   0.01752   0.01109  -0.1034   0.0121   1.0000
   8.500   1.3429   0.01888   0.01260  -0.1011   0.0110   1.0000
   9.000   1.3843   0.02015   0.01395  -0.0989   0.0099   1.0000
   9.500   1.4086   0.02349   0.01756  -0.0938   0.0088   1.0000
  10.000   1.4449   0.02506   0.01934  -0.0908   0.0083   1.0000
  10.500   1.4739   0.02724   0.02175  -0.0867   0.0077   1.0000
  11.000   1.4961   0.02954   0.02427  -0.0817   0.0072   1.0000
  11.500   1.5101   0.03187   0.02681  -0.0757   0.0068   1.0000
  12.000   1.5178   0.03492   0.03007  -0.0698   0.0064   1.0000
  12.500   1.4913   0.04227   0.03795  -0.0617   0.0060   1.0000
  13.000   1.4800   0.04795   0.04404  -0.0573   0.0058   1.0000
  13.500   1.4710   0.05400   0.05042  -0.0550   0.0056   1.0000
  14.000   1.4477   0.06290   0.05969  -0.0549   0.0055   1.0000
  14.500   1.4142   0.07468   0.07185  -0.0578   0.0055   1.0000
  15.000   1.3715   0.09004   0.08759  -0.0645   0.0055   1.0000
